% mem=8GB
% NProcShared=4
% Chk=lig
# wB97XD/6-311++G(d,p) SCF=QC opt=tight freq

ligand

0 1
C          1.00000        1.00000        0.00000
C         -0.39900        1.00000        0.00000
C          1.70000       -0.21200        0.00000
H          1.54100        1.93700        0.00000
C         -1.09900       -0.21200        0.00000
H         -0.94000        1.93700        0.00000
C         -0.39900       -1.42300        0.00000
H         -2.18100       -0.21200        0.00000
C          1.00000       -1.42300        0.00000
H         -0.94000       -2.36100        0.00000
H          1.54100       -2.36100        0.00000
H          2.78200       -0.21200        0.00000










